Circuit: * Z:\home\alowell\pcm3168a_euro1\spice\Draft1.asc

Direct Newton iteration for .op point succeeded.

Date: Mon Sep 29 07:11:12 2025
Total elapsed time: 0.104 seconds.

tnom = 27
temp = 27
method = modified trap
totiter = 2334
traniter = 2328
tranpoints = 1142
accept = 1127
rejected = 15
matrix size = 10
fillins = 0
solver = Normal
Matrix Compiler1: 506 bytes object code size  0.6/0.5/[0.4]
Matrix Compiler2: 720 bytes object code size  1.0/0.6/[0.4]

