Circuit: * Z:\home\alowell\pcm3168a_euro1\spice\pmos_switch.asc

Direct Newton iteration for .op point succeeded.

Date: Mon Sep 29 07:22:11 2025
Total elapsed time: 0.132 seconds.

tnom = 27
temp = 27
method = modified trap
totiter = 2371
traniter = 2366
tranpoints = 1121
accept = 1108
rejected = 13
matrix size = 11
fillins = 0
solver = Normal
Matrix Compiler1: 494 bytes object code size  0.6/0.5/[0.5]
Matrix Compiler2: 793 bytes object code size  0.5/0.6/[0.5]

